
#======================================================================
# CRYSTAL DATA
#----------------------------------------------------------------------
data_VESTA_phase_1

_chemical_name_common                  'Na2 Ru8 O24'
_cell_length_a                         5.181467
_cell_length_b                         8.980287
_cell_length_c                         9.359266
_cell_angle_alpha                      90.000000
_cell_angle_beta                       90.054741
_cell_angle_gamma                      90.000000
_cell_volume                           435.496374
_space_group_name_H-M_alt              'P 1'
_space_group_IT_number                 1

loop_
_space_group_symop_operation_xyz
   'x, y, z'

loop_
   _atom_site_label
   _atom_site_occupancy
   _atom_site_fract_x
   _atom_site_fract_y
   _atom_site_fract_z
   _atom_site_adp_type
   _atom_site_U_iso_or_equiv
   _atom_site_type_symbol
   Na1        1.0    -0.000146     0.994893     0.499905    Uiso  ? Na
   Na2        1.0     0.000146     0.994893     0.000095    Uiso  ? Na
   Ru1        1.0     0.500000     0.164132     0.250000    Uiso  ? Ru
   Ru2        1.0     0.500000     0.162592     0.750000    Uiso  ? Ru
   Ru3        1.0     0.500000     0.827388     0.750000    Uiso  ? Ru
   Ru4        1.0     0.500000     0.828989     0.250000    Uiso  ? Ru
   Ru5        1.0     -0.000000     0.660441     0.250000    Uiso  ? Ru
   Ru6        1.0     -0.000000     0.660449     0.750000    Uiso  ? Ru
   Ru7        1.0     -0.000000     0.329006     0.750000    Uiso  ? Ru
   Ru8        1.0     -0.000000     0.329037     0.250000    Uiso  ? Ru
   O1         1.0     0.303433     0.692165     0.857966    Uiso  ? O
   O2         1.0     0.386080     0.995385     0.358940    Uiso  ? O
   O3         1.0     0.614375    -0.004851     0.640890    Uiso  ? O
   O4         1.0     0.191987     0.803264     0.639855    Uiso  ? O
   O5         1.0     0.613920     0.995385     0.141060    Uiso  ? O
   O6         1.0     0.694733     0.298698     0.141758    Uiso  ? O
   O7         1.0     0.808013     0.803264     0.860145    Uiso  ? O
   O8         1.0     0.305267     0.298698     0.358242    Uiso  ? O
   O9         1.0     0.696567     0.692165     0.642034    Uiso  ? O
   O10        1.0     0.809715     0.186851     0.360300    Uiso  ? O
   O11        1.0     0.385625    -0.004851     0.859110    Uiso  ? O
   O12        1.0     0.190285     0.186851     0.139700    Uiso  ? O
   O13        1.0     0.807759     0.186472     0.860067    Uiso  ? O
   O14        1.0     0.893975     0.495813     0.358763    Uiso  ? O
   O15        1.0     0.106920     0.495142     0.641266    Uiso  ? O
   O16        1.0     0.695423     0.297240     0.642123    Uiso  ? O
   O17        1.0     0.106025     0.495813     0.141237    Uiso  ? O
   O18        1.0     0.193122     0.804011     0.139960    Uiso  ? O
   O19        1.0     0.304577     0.297240     0.857877    Uiso  ? O
   O20        1.0     0.806878     0.804011     0.360040    Uiso  ? O
   O21        1.0     0.192241     0.186472     0.639933    Uiso  ? O
   O22        1.0     0.303278     0.692964     0.357644    Uiso  ? O
   O23        1.0     0.893080     0.495142     0.858734    Uiso  ? O
   O24        1.0     0.696722     0.692964     0.142356    Uiso  ? O
