
#======================================================================
# CRYSTAL DATA
#----------------------------------------------------------------------
data_VESTA_phase_1

_chemical_name_common                  'Na16 Ru8 O24'
_cell_length_a                         5.373725
_cell_length_b                         9.239094
_cell_length_c                         10.517801
_cell_angle_alpha                      90.000000
_cell_angle_beta                       99.801094
_cell_angle_gamma                      90.000000
_cell_volume                           514.569897
_space_group_name_H-M_alt              'P 1'
_space_group_IT_number                 1

loop_
_space_group_symop_operation_xyz
   'x, y, z'

loop_
   _atom_site_label
   _atom_site_occupancy
   _atom_site_fract_x
   _atom_site_fract_y
   _atom_site_fract_z
   _atom_site_adp_type
   _atom_site_U_iso_or_equiv
   _atom_site_type_symbol
   Na1        1.0     0.500000     0.585614     0.750000    Uiso  ? Na
   Na2        1.0     0.762537     0.919065     0.497894    Uiso  ? Na
   Na3        1.0     0.762537     0.080935     0.997894    Uiso  ? Na
   Na4        1.0     0.237463     0.919065     0.002106    Uiso  ? Na
   Na5        1.0     0.750000     0.750000     0.000000    Uiso  ? Na
   Na6        1.0     0.237463     0.080935     0.502106    Uiso  ? Na
   Na7        1.0     0.500000     0.414386     0.250000    Uiso  ? Na
   Na8        1.0     0.750000     0.250000     0.500000    Uiso  ? Na
   Na9        1.0     0.000000     0.085614     0.750000    Uiso  ? Na
   Na10       1.0     0.262537     0.419065     0.497894    Uiso  ? Na
   Na11       1.0     0.262537     0.580935     0.997894    Uiso  ? Na
   Na12       1.0     0.737463     0.419065     0.002106    Uiso  ? Na
   Na13       1.0     0.250000     0.250000     0.000000    Uiso  ? Na
   Na14       1.0     0.737463     0.580935     0.502106    Uiso  ? Na
   Na15       1.0     0.000000     0.914386     0.250000    Uiso  ? Na
   Na16       1.0     0.250000     0.750000     0.500000    Uiso  ? Na
   Ru1        1.0     0.500000     0.082438     0.250000    Uiso  ? Ru
   Ru2        1.0     0.500000     0.252094     0.750000    Uiso  ? Ru
   Ru3        1.0     0.500000     0.917562     0.750000    Uiso  ? Ru
   Ru4        1.0     0.500000     0.747906     0.250000    Uiso  ? Ru
   Ru5        1.0     0.000000     0.582438     0.250000    Uiso  ? Ru
   Ru6        1.0     0.000000     0.752094     0.750000    Uiso  ? Ru
   Ru7        1.0     0.000000     0.417562     0.750000    Uiso  ? Ru
   Ru8        1.0     0.000000     0.247906     0.250000    Uiso  ? Ru
   O1         1.0     0.359167     0.769421     0.856298    Uiso  ? O
   O2         1.0     0.399188     0.914945     0.353170    Uiso  ? O
   O3         1.0     0.600812     0.085055     0.646830    Uiso  ? O
   O4         1.0     0.140662     0.901963     0.642982    Uiso  ? O
   O5         1.0     0.600812     0.914945     0.146830    Uiso  ? O
   O6         1.0     0.640833     0.230579     0.143702    Uiso  ? O
   O7         1.0     0.859338     0.901963     0.857018    Uiso  ? O
   O8         1.0     0.359167     0.230579     0.356298    Uiso  ? O
   O9         1.0     0.640833     0.769421     0.643702    Uiso  ? O
   O10        1.0     0.859338     0.098038     0.357018    Uiso  ? O
   O11        1.0     0.399188     0.085055     0.853170    Uiso  ? O
   O12        1.0     0.140662     0.098038     0.142982    Uiso  ? O
   O13        1.0     0.859167     0.269421     0.856298    Uiso  ? O
   O14        1.0     0.899188     0.414945     0.353170    Uiso  ? O
   O15        1.0     0.100812     0.585055     0.646830    Uiso  ? O
   O16        1.0     0.640662     0.401962     0.642982    Uiso  ? O
   O17        1.0     0.100812     0.414945     0.146830    Uiso  ? O
   O18        1.0     0.140833     0.730579     0.143702    Uiso  ? O
   O19        1.0     0.359338     0.401962     0.857018    Uiso  ? O
   O20        1.0     0.859167     0.730579     0.356298    Uiso  ? O
   O21        1.0     0.140833     0.269421     0.643702    Uiso  ? O
   O22        1.0     0.359338     0.598037     0.357018    Uiso  ? O
   O23        1.0     0.899188     0.585055     0.853170    Uiso  ? O
   O24        1.0     0.640662     0.598037     0.142982    Uiso  ? O
