
#======================================================================
# CRYSTAL DATA
#----------------------------------------------------------------------
data_VESTA_phase_1

_chemical_name_common                  'Na16 Ru8 O24'
_cell_length_a                         5.324356
_cell_length_b                         9.272590
_cell_length_c                         10.636775
_cell_angle_alpha                      90.000000
_cell_angle_beta                       100.086823
_cell_angle_gamma                      90.000000
_cell_volume                           517.026702
_space_group_name_H-M_alt              'P 1'
_space_group_IT_number                 1

loop_
_space_group_symop_operation_xyz
   'x, y, z'

loop_
   _atom_site_label
   _atom_site_occupancy
   _atom_site_fract_x
   _atom_site_fract_y
   _atom_site_fract_z
   _atom_site_adp_type
   _atom_site_U_iso_or_equiv
   _atom_site_type_symbol
   Na1        1.0     0.500000     0.586460     0.750000    Uiso  ? Na
   Na2        1.0     0.771048     0.070367     0.001495    Uiso  ? Na
   Na3        1.0     0.759178     0.757612     0.004355    Uiso  ? Na
   Na4        1.0     0.228952     0.070367     0.498505    Uiso  ? Na
   Na5        1.0     0.500000     0.412648     0.250000    Uiso  ? Na
   Na6        1.0     0.747315     0.237901     0.505234    Uiso  ? Na
   Na7        1.0     0.000000     0.081741     0.750000    Uiso  ? Na
   Na8        1.0     0.260296     0.420506     0.500933    Uiso  ? Na
   Na9        1.0     0.265050     0.593797     0.998362    Uiso  ? Na
   Na10       1.0     0.739704     0.420506    -0.000933    Uiso  ? Na
   Na11       1.0     0.252685     0.237901    -0.005234    Uiso  ? Na
   Na12       1.0     0.734950     0.593797     0.501638    Uiso  ? Na
   Na13       1.0     0.000000     0.913374     0.250000    Uiso  ? Na
   Na14       1.0     0.240822     0.757612     0.495645    Uiso  ? Na
   Ru1        1.0     0.500000     0.078824     0.250000    Uiso  ? Ru
   Ru2        1.0     0.500000     0.252857     0.750000    Uiso  ? Ru
   Ru3        1.0     0.500000     0.920752     0.750000    Uiso  ? Ru
   Ru4        1.0     0.500000     0.746696     0.250000    Uiso  ? Ru
   Ru5        1.0     0.000000     0.577841     0.250000    Uiso  ? Ru
   Ru6        1.0     0.000000     0.753417     0.750000    Uiso  ? Ru
   Ru7        1.0     0.000000     0.421504     0.750000    Uiso  ? Ru
   Ru8        1.0     0.000000     0.249370     0.250000    Uiso  ? Ru
   O1         1.0     0.351131     0.773226     0.849755    Uiso  ? O
   O2         1.0     0.404355     0.916732     0.349562    Uiso  ? O
   O3         1.0     0.589922     0.086529     0.647458    Uiso  ? O
   O4         1.0     0.159096     0.901920     0.648617    Uiso  ? O
   O5         1.0     0.595645     0.916732     0.150438    Uiso  ? O
   O6         1.0     0.641701     0.225482     0.143936    Uiso  ? O
   O7         1.0     0.840904     0.901920     0.851383    Uiso  ? O
   O8         1.0     0.358299     0.225482     0.356064    Uiso  ? O
   O9         1.0     0.648869     0.773226     0.650245    Uiso  ? O
   O10        1.0     0.850231     0.102238     0.349698    Uiso  ? O
   O11        1.0     0.410078     0.086529     0.852542    Uiso  ? O
   O12        1.0     0.149769     0.102238     0.150302    Uiso  ? O
   O13        1.0     0.846489     0.265284     0.852961    Uiso  ? O
   O14        1.0     0.898753     0.412678     0.354411    Uiso  ? O
   O15        1.0     0.095822     0.587446     0.645332    Uiso  ? O
   O16        1.0     0.654716     0.408111     0.643507    Uiso  ? O
   O17        1.0     0.101247     0.412678     0.145589    Uiso  ? O
   O18        1.0     0.142411     0.725869     0.151030    Uiso  ? O
   O19        1.0     0.345284     0.408111     0.856493    Uiso  ? O
   O20        1.0     0.857589     0.725869     0.348970    Uiso  ? O
   O21        1.0     0.153511     0.265284     0.647039    Uiso  ? O
   O22        1.0     0.355765     0.597497     0.357185    Uiso  ? O
   O23        1.0     0.904178     0.587446     0.854668    Uiso  ? O
   O24        1.0     0.644235     0.597497     0.142815    Uiso  ? O
