
#======================================================================
# CRYSTAL DATA
#----------------------------------------------------------------------
data_VESTA_phase_1

_chemical_name_common                  'Na12 Ru8 O24'
_cell_length_a                         5.316583
_cell_length_b                         9.124376
_cell_length_c                         10.902947
_cell_angle_alpha                      90.000000
_cell_angle_beta                       100.575623
_cell_angle_gamma                      90.000000
_cell_volume                           519.923169
_space_group_name_H-M_alt              'P 1'
_space_group_IT_number                 1

loop_
_space_group_symop_operation_xyz
   'x, y, z'

loop_
   _atom_site_label
   _atom_site_occupancy
   _atom_site_fract_x
   _atom_site_fract_y
   _atom_site_fract_z
   _atom_site_adp_type
   _atom_site_U_iso_or_equiv
   _atom_site_type_symbol
   Na1        1.0     0.498873     0.586751     0.750791    Uiso  ? Na
   Na2        1.0     0.760370     0.963336     0.507373    Uiso  ? Na
   Na3        1.0     0.777749     0.121254     0.993827    Uiso  ? Na
   Na4        1.0     0.241706     0.932677    -0.003543    Uiso  ? Na
   Na5        1.0     0.755481     0.737759    -0.001568    Uiso  ? Na
   Na6        1.0     0.502764     0.407146     0.247778    Uiso  ? Na
   Na7        1.0     0.002764     0.092854     0.747778    Uiso  ? Na
   Na8        1.0     0.277749     0.378746     0.493827    Uiso  ? Na
   Na9        1.0     0.260370     0.536664     0.007373    Uiso  ? Na
   Na10       1.0     0.741706     0.567323     0.496457    Uiso  ? Na
   Na11       1.0    -0.001127     0.913249     0.250791    Uiso  ? Na
   Na12       1.0     0.255481     0.762241     0.498432    Uiso  ? Na
   Ru1        1.0     0.495175     0.080104     0.248721    Uiso  ? Ru
   Ru2        1.0     0.496423     0.252724     0.750273    Uiso  ? Ru
   Ru3        1.0     0.501519     0.922064     0.752777    Uiso  ? Ru
   Ru4        1.0     0.501364     0.742470     0.249999    Uiso  ? Ru
   Ru5        1.0     0.001519     0.577936     0.252777    Uiso  ? Ru
   Ru6        1.0     0.001364     0.757530     0.749999    Uiso  ? Ru
   Ru7        1.0    -0.004825     0.419896     0.748721    Uiso  ? Ru
   Ru8        1.0    -0.003577     0.247276     0.250273    Uiso  ? Ru
   O1         1.0     0.360584     0.771440     0.853358    Uiso  ? O
   O2         1.0     0.412091     0.908572     0.348270    Uiso  ? O
   O3         1.0     0.594428     0.085998     0.654300    Uiso  ? O
   O4         1.0     0.145283     0.904289     0.650672    Uiso  ? O
   O5         1.0     0.588668     0.913531     0.147206    Uiso  ? O
   O6         1.0     0.644122     0.221399     0.152504    Uiso  ? O
   O7         1.0     0.855752     0.909083     0.857287    Uiso  ? O
   O8         1.0     0.344404     0.220568     0.346311    Uiso  ? O
   O9         1.0     0.647757     0.773213     0.645737    Uiso  ? O
   O10        1.0     0.839216     0.099523     0.344513    Uiso  ? O
   O11        1.0     0.405131     0.085576     0.852262    Uiso  ? O
   O12        1.0     0.143677     0.097334     0.149046    Uiso  ? O
   O13        1.0     0.844404     0.279432     0.846311    Uiso  ? O
   O14        1.0     0.905131     0.414424     0.352262    Uiso  ? O
   O15        1.0     0.088668     0.586469     0.647206    Uiso  ? O
   O16        1.0     0.643677     0.402666     0.649046    Uiso  ? O
   O17        1.0     0.094428     0.414002     0.154300    Uiso  ? O
   O18        1.0     0.147757     0.726787     0.145737    Uiso  ? O
   O19        1.0     0.339216     0.400477     0.844513    Uiso  ? O
   O20        1.0     0.860584     0.728560     0.353358    Uiso  ? O
   O21        1.0     0.144122     0.278601     0.652504    Uiso  ? O
   O22        1.0     0.355752     0.590917     0.357287    Uiso  ? O
   O23        1.0     0.912091     0.591428     0.848270    Uiso  ? O
   O24        1.0     0.645283     0.595711     0.150672    Uiso  ? O
