
#======================================================================
# CRYSTAL DATA
#----------------------------------------------------------------------
data_VESTA_phase_1

_chemical_name_common                  'Na8 Ru8 O24'
_cell_length_a                         5.294967
_cell_length_b                         9.156660
_cell_length_c                         10.989185
_cell_angle_alpha                      87.798409
_cell_angle_beta                       101.558586
_cell_angle_gamma                      90.317635
_cell_volume                           521.610352
_space_group_name_H-M_alt              'P 1'
_space_group_IT_number                 1

loop_
_space_group_symop_operation_xyz
   'x, y, z'

loop_
   _atom_site_label
   _atom_site_occupancy
   _atom_site_fract_x
   _atom_site_fract_y
   _atom_site_fract_z
   _atom_site_adp_type
   _atom_site_U_iso_or_equiv
   _atom_site_type_symbol
   Na1        1.0     0.482934     0.586189     0.743362    Uiso  ? Na
   Na2        1.0     0.789463     0.044721     0.007433    Uiso  ? Na
   Na3        1.0     0.499319     0.414976     0.235291    Uiso  ? Na
   Na4        1.0     0.744360     0.235826     0.502285    Uiso  ? Na
   Na5        1.0     0.000884     0.084051     0.759180    Uiso  ? Na
   Na6        1.0     0.720304     0.439143     0.995377    Uiso  ? Na
   Na7        1.0     0.696435     0.610704     0.505169    Uiso  ? Na
   Na8        1.0     0.030974     0.913095     0.299689    Uiso  ? Na
   Ru1        1.0     0.508512     0.080852     0.245073    Uiso  ? Ru
   Ru2        1.0     0.488709     0.250809     0.747023    Uiso  ? Ru
   Ru3        1.0     0.490491     0.916850     0.745439    Uiso  ? Ru
   Ru4        1.0     0.507228     0.749213     0.238766    Uiso  ? Ru
   Ru5        1.0     0.007871     0.583159     0.246585    Uiso  ? Ru
   Ru6        1.0     0.994470     0.753134     0.756507    Uiso  ? Ru
   Ru7        1.0     0.994843     0.418754     0.754849    Uiso  ? Ru
   Ru8        1.0     0.011025     0.249335     0.249172    Uiso  ? Ru
   O1         1.0     0.344848     0.771265     0.843664    Uiso  ? O
   O2         1.0     0.447074     0.909239     0.341685    Uiso  ? O
   O3         1.0     0.579066     0.092295     0.652663    Uiso  ? O
   O4         1.0     0.139927     0.898917     0.657527    Uiso  ? O
   O5         1.0     0.606368     0.922262     0.152049    Uiso  ? O
   O6         1.0     0.664606     0.228846     0.144837    Uiso  ? O
   O7         1.0     0.839271     0.893879     0.847103    Uiso  ? O
   O8         1.0     0.365198     0.224334     0.340809    Uiso  ? O
   O9         1.0     0.645692     0.775865     0.654791    Uiso  ? O
   O10        1.0     0.851658     0.109852     0.347882    Uiso  ? O
   O11        1.0     0.419712     0.080361     0.845051    Uiso  ? O
   O12        1.0     0.151429     0.101249     0.157179    Uiso  ? O
   O13        1.0     0.835433     0.270696     0.850479    Uiso  ? O
   O14        1.0     0.918092     0.410555     0.342545    Uiso  ? O
   O15        1.0     0.066900     0.589353     0.657115    Uiso  ? O
   O16        1.0     0.646912     0.400692     0.649516    Uiso  ? O
   O17        1.0     0.084186     0.419518     0.149549    Uiso  ? O
   O18        1.0     0.154163     0.735211     0.156041    Uiso  ? O
   O19        1.0     0.348687     0.393451     0.845012    Uiso  ? O
   O20        1.0     0.849375     0.711952     0.344996    Uiso  ? O
   O21        1.0     0.134372     0.276409     0.656879    Uiso  ? O
   O22        1.0     0.362688     0.599120     0.338930    Uiso  ? O
   O23        1.0     0.903937     0.577923     0.848534    Uiso  ? O
   O24        1.0     0.660044     0.606880     0.146068    Uiso  ? O
