
#======================================================================
# CRYSTAL DATA
#----------------------------------------------------------------------
data_VESTA_phase_1

_chemical_name_common                  'Na6 Ru8 O24'
_cell_length_a                         5.234643
_cell_length_b                         9.098399
_cell_length_c                         11.028172
_cell_angle_alpha                      90.000000
_cell_angle_beta                       101.959572
_cell_angle_gamma                      90.000000
_cell_volume                           513.836538
_space_group_name_H-M_alt              'P 1'
_space_group_IT_number                 1

loop_
_space_group_symop_operation_xyz
   'x, y, z'

loop_
   _atom_site_label
   _atom_site_occupancy
   _atom_site_fract_x
   _atom_site_fract_y
   _atom_site_fract_z
   _atom_site_adp_type
   _atom_site_U_iso_or_equiv
   _atom_site_type_symbol
   Na1        1.0     0.500000     0.596646     0.750000    Uiso  ? Na
   Na2        1.0     0.907400     0.109859     0.551172    Uiso  ? Na
   Na3        1.0     0.092600     0.109859    -0.051172    Uiso  ? Na
   Na4        1.0     0.747700     0.733903    -0.001468    Uiso  ? Na
   Na5        1.0     -0.000000     0.882603     0.250000    Uiso  ? Na
   Na6        1.0     0.252300     0.733903     0.501468    Uiso  ? Na
   Ru1        1.0     0.500000     0.049748     0.250000    Uiso  ? Ru
   Ru2        1.0     0.500000     0.267076     0.750000    Uiso  ? Ru
   Ru3        1.0     0.500000     0.937871     0.750000    Uiso  ? Ru
   Ru4        1.0     0.500000     0.709754     0.250000    Uiso  ? Ru
   Ru5        1.0     -0.000000     0.541915     0.250000    Uiso  ? Ru
   Ru6        1.0     -0.000000     0.769589     0.750000    Uiso  ? Ru
   Ru7        1.0     -0.000000     0.432587     0.750000    Uiso  ? Ru
   Ru8        1.0     -0.000000     0.214946     0.250000    Uiso  ? Ru
   O1         1.0     0.355090     0.791173     0.845978    Uiso  ? O
   O2         1.0     0.418752     0.878181     0.344448    Uiso  ? O
   O3         1.0     0.577705     0.100685     0.654401    Uiso  ? O
   O4         1.0     0.149434     0.908961     0.649317    Uiso  ? O
   O5         1.0     0.581248     0.878181     0.155552    Uiso  ? O
   O6         1.0     0.649695     0.176938     0.153520    Uiso  ? O
   O7         1.0     0.850566     0.908961     0.850683    Uiso  ? O
   O8         1.0     0.350305     0.176938     0.346480    Uiso  ? O
   O9         1.0     0.644910     0.791173     0.654022    Uiso  ? O
   O10        1.0     0.853477     0.071095     0.347992    Uiso  ? O
   O11        1.0     0.422295     0.100685     0.845599    Uiso  ? O
   O12        1.0     0.146523     0.071095     0.152008    Uiso  ? O
   O13        1.0     0.851385     0.292367     0.845249    Uiso  ? O
   O14        1.0     0.925523     0.377436     0.343238    Uiso  ? O
   O15        1.0     0.083136     0.603444     0.655488    Uiso  ? O
   O16        1.0     0.650237     0.407735     0.655209    Uiso  ? O
   O17        1.0     0.074477     0.377436     0.156762    Uiso  ? O
   O18        1.0     0.144851     0.689255     0.153498    Uiso  ? O
   O19        1.0     0.349763     0.407735     0.844791    Uiso  ? O
   O20        1.0     0.855149     0.689255     0.346502    Uiso  ? O
   O21        1.0     0.148615     0.292367     0.654751    Uiso  ? O
   O22        1.0     0.345078     0.576665     0.348037    Uiso  ? O
   O23        1.0     0.916864     0.603444     0.844512    Uiso  ? O
   O24        1.0     0.654922     0.576665     0.151963    Uiso  ? O
