
#======================================================================
# CRYSTAL DATA
#----------------------------------------------------------------------
data_VESTA_phase_1

_chemical_name_common                  'Na4 Ru8 O24'
_cell_length_a                         5.133757
_cell_length_b                         9.050762
_cell_length_c                         10.805429
_cell_angle_alpha                      90.000000
_cell_angle_beta                       118.682632
_cell_angle_gamma                      90.000000
_cell_volume                           440.459965
_space_group_name_H-M_alt              'P 1'
_space_group_IT_number                 1

loop_
_space_group_symop_operation_xyz
   'x, y, z'

loop_
   _atom_site_label
   _atom_site_occupancy
   _atom_site_fract_x
   _atom_site_fract_y
   _atom_site_fract_z
   _atom_site_adp_type
   _atom_site_U_iso_or_equiv
   _atom_site_type_symbol
   Na1        1.0     0.750000     0.231577     0.500001    Uiso  ? Na
   Na2        1.0     0.250000     0.231577    -0.000001    Uiso  ? Na
   Na3        1.0     0.750004     0.731510     0.000001    Uiso  ? Na
   Na4        1.0     0.249996     0.731510     0.499999    Uiso  ? Na
   Ru1        1.0     0.500000     0.892552     0.250000    Uiso  ? Ru
   Ru2        1.0     0.500000     0.400279     0.750000    Uiso  ? Ru
   Ru3        1.0     0.500000     0.070732     0.750000    Uiso  ? Ru
   Ru4        1.0     0.500000     0.562944     0.250000    Uiso  ? Ru
   Ru5        1.0     -0.000000     0.400286     0.250000    Uiso  ? Ru
   Ru6        1.0     -0.000000     0.892545     0.750000    Uiso  ? Ru
   Ru7        1.0     -0.000000     0.562939     0.750000    Uiso  ? Ru
   Ru8        1.0     -0.000000     0.070740     0.250000    Uiso  ? Ru
   O1         1.0     0.411032     0.922751     0.857074    Uiso  ? O
   O2         1.0     0.490538     0.732386     0.359120    Uiso  ? O
   O3         1.0     0.509486     0.230823     0.640855    Uiso  ? O
   O4         1.0     0.088938     0.040563     0.642908    Uiso  ? O
   O5         1.0     0.509462     0.732386     0.140880    Uiso  ? O
   O6         1.0     0.588938     0.040568     0.142907    Uiso  ? O
   O7         1.0     0.911062     0.040563     0.857092    Uiso  ? O
   O8         1.0     0.411062     0.040568     0.357093    Uiso  ? O
   O9         1.0     0.588968     0.922751     0.642926    Uiso  ? O
   O10        1.0     0.911031     0.922757     0.357075    Uiso  ? O
   O11        1.0     0.490514     0.230823     0.859145    Uiso  ? O
   O12        1.0     0.088969     0.922757     0.142925    Uiso  ? O
   O13        1.0     0.922013     0.420245     0.858465    Uiso  ? O
   O14        1.0     0.990509     0.230828     0.359144    Uiso  ? O
   O15        1.0     0.009459     0.732379     0.640879    Uiso  ? O
   O16        1.0     0.577979     0.542957     0.641510    Uiso  ? O
   O17        1.0     0.009491     0.230828     0.140856    Uiso  ? O
   O18        1.0     0.077981     0.542960     0.141510    Uiso  ? O
   O19        1.0     0.422021     0.542957     0.858490    Uiso  ? O
   O20        1.0     0.922019     0.542960     0.358490    Uiso  ? O
   O21        1.0     0.077987     0.420245     0.641535    Uiso  ? O
   O22        1.0     0.422012     0.420252     0.358465    Uiso  ? O
   O23        1.0     0.990541     0.732379     0.859121    Uiso  ? O
   O24        1.0     0.577988     0.420252     0.141535    Uiso  ? O
