
#======================================================================
# CRYSTAL DATA
#----------------------------------------------------------------------
data_VESTA_phase_1

_chemical_name_common                  'Na10 Ru8 O24'
_cell_length_a                         5.289205
_cell_length_b                         9.124557
_cell_length_c                         10.873042
_cell_angle_alpha                      90.000000
_cell_angle_beta                       101.400604
_cell_angle_gamma                      90.000000
_cell_volume                           514.397154
_space_group_name_H-M_alt              'P 1'
_space_group_IT_number                 1

loop_
_space_group_symop_operation_xyz
   'x, y, z'

loop_
   _atom_site_label
   _atom_site_occupancy
   _atom_site_fract_x
   _atom_site_fract_y
   _atom_site_fract_z
   _atom_site_adp_type
   _atom_site_U_iso_or_equiv
   _atom_site_type_symbol
   Na1        1.0     0.500000     0.582742     0.750000    Uiso  ? Na
   Na2        1.0     0.915400     0.086393     0.556947    Uiso  ? Na
   Na3        1.0     0.084600     0.086393    -0.056947    Uiso  ? Na
   Na4        1.0     0.738337     0.767480     0.005159    Uiso  ? Na
   Na5        1.0     0.304836     0.378332     0.488815    Uiso  ? Na
   Na6        1.0     0.251052     0.550975     0.010934    Uiso  ? Na
   Na7        1.0     0.695164     0.378332     0.011185    Uiso  ? Na
   Na8        1.0     0.748948     0.550975     0.489066    Uiso  ? Na
   Na9        1.0     0.000000     0.904357     0.250000    Uiso  ? Na
   Na10       1.0     0.261663     0.767480     0.494841    Uiso  ? Na
   Ru1        1.0     0.500000     0.070937     0.250000    Uiso  ? Ru
   Ru2        1.0     0.500000     0.246315     0.750000    Uiso  ? Ru
   Ru3        1.0     0.500000     0.921002     0.750000    Uiso  ? Ru
   Ru4        1.0     0.500000     0.733662     0.250000    Uiso  ? Ru
   Ru5        1.0     0.000000     0.565740     0.250000    Uiso  ? Ru
   Ru6        1.0     0.000000     0.754047     0.750000    Uiso  ? Ru
   Ru7        1.0     0.000000     0.415089     0.750000    Uiso  ? Ru
   Ru8        1.0     -0.000000     0.235690     0.250000    Uiso  ? Ru
   O1         1.0     0.351738     0.769748     0.849211    Uiso  ? O
   O2         1.0     0.413851     0.902701     0.345371    Uiso  ? O
   O3         1.0     0.586260     0.082392     0.653649    Uiso  ? O
   O4         1.0     0.146569     0.894334     0.650288    Uiso  ? O
   O5         1.0     0.586150     0.902701     0.154629    Uiso  ? O
   O6         1.0     0.653627     0.211693     0.153655    Uiso  ? O
   O7         1.0     0.853431     0.894334     0.849712    Uiso  ? O
   O8         1.0     0.346373     0.211693     0.346345    Uiso  ? O
   O9         1.0     0.648262     0.769748     0.650789    Uiso  ? O
   O10        1.0     0.852264     0.091814     0.348484    Uiso  ? O
   O11        1.0     0.413740     0.082392     0.846351    Uiso  ? O
   O12        1.0     0.147736     0.091814     0.151516    Uiso  ? O
   O13        1.0     0.847601     0.279506     0.849353    Uiso  ? O
   O14        1.0     0.925116     0.402113     0.352194    Uiso  ? O
   O15        1.0     0.088317     0.586290     0.649360    Uiso  ? O
   O16        1.0     0.648719     0.399475     0.647477    Uiso  ? O
   O17        1.0     0.074884     0.402113     0.147806    Uiso  ? O
   O18        1.0     0.140905     0.710553     0.149880    Uiso  ? O
   O19        1.0     0.351281     0.399475     0.852523    Uiso  ? O
   O20        1.0     0.859095     0.710553     0.350120    Uiso  ? O
   O21        1.0     0.152399     0.279506     0.650647    Uiso  ? O
   O22        1.0     0.348301     0.590476     0.354854    Uiso  ? O
   O23        1.0     0.911683     0.586290     0.850640    Uiso  ? O
   O24        1.0     0.651699     0.590476     0.145146    Uiso  ? O
